SOL 101
CEND
$
TITLE = CHECK
ECHO = NONE
$
NSM = 444
$
POST TOFILE 12
$
MAXMIN(DEF) DISP MAGT ABSOLUTE(1) FULL
$
SUBCASE       10
  TITLE          =      LOAD:   GLOBAL  BEND
  SUBTITLE       =      SIT
  LOAD           =      1
  DISP(PLOT)     =      ALL
  SPC            =      1
  MPC            =      1
SUBCASE       11
  TITLE          =      LOAD:   GLOBAL  BEND
  SUBTITLE       =      SIT
  LOAD           =      1
$ANSA_DEFAULT_SET_TYPE;NODE;                                                    
                                                                                
$Anonymous Header SET                                                           
SET 11= 730006,732006,760001,761001,789509,789510                               
  DISP(PRINT)    =      11
  SPC            =      1
  MPC            =      1
  POST NODISP
SUBCASE       20
  TITLE          =      LOAD:   Fr-END
  SUBTITLE       =      SIT
  LOAD           =      2
  DISP(PLOT)     =      ALL
  SPC            =      2
  MPC            =      2
SUBCASE       21
  TITLE          =      LOAD:   Fr-END
  SUBTITLE       =      SIT
  LOAD           =      2
$Anonymous Header SET@_1                                                        
SET 21= 745003,745006                                                           
  DISP(PRINT)    =      21
  SPC            =      2
  MPC            =      2
  POST NODISP
$
BEGIN BULK
PARAM,GRDPNT,0
PARAM,ENFMOTN,ABS
PARAM,SHLDAMP,DIFF
PARAM,AUTOSPC,YES
PARAM,COUPMASS,1
PARAM,PRGPST,NO
PARAM,POST,-2
SWLDPRM CHKRUN  2
        GMCHK   1
        PRTSW   11
        PROJTOL 0.20
        GSMOVE  100
        GSTOL   10.0
        GSPROJ  45.0
        NREDIA  4
GRID      700004         544.012-805.016  14.733  700004
GRID     3865042        520.1683-846.258-6.04457
GRID     3865046        511.1786  -843.8 -5.3298
GRID     3865048        512.3089-844.266-12.8392
GRID     3865051        522.2957  -846.7-12.9345
GRID     3865090        567.7543-844.905-18.6472
GRID     3865093        578.7516  -843.7-21.0802
GRID     3865094        578.7516  -843.7-12.8033
$--1---][--2---][--3---][--4---][--5---][--6---][--7---][--8---][--9---]
GRID     3865097        570.2926-844.409-12.8028
GRID     3865098        499.9999  -843.712.91447
GRID     3865102         492.398  -843.712.91451
GRID     3865104        489.1408-842.6896.767714
GRID     3865106        499.9999-842.6896.767732
GRID     3865107        499.9999  -841.7.7489805
GRID     3865111         506.282-842.347-9.20519
GRID     3865119        578.8679-841.708-26.7986
GRID     3865120        579.1469-835.848-30.1724
GRID     3865121        588.1196-835.848-29.7824
GRID     3865122        587.8389-841.501-26.6599
GRID     3865136        587.6316  -843.7-20.6942
GRID     3865138        596.7816-835.848-29.4059
GRID     3865150        596.4426-841.465-26.3278
GRID     3865183        596.0083  -843.7-20.3301
GRID     3865233        507.4368  -843.720.53079
GRID     3865235        498.7684  -843.7 20.6398
GRID     3865236        507.7592-843.69811.68432
GRID     3865237        527.2395-845.4932.205366
GRID     3865239        537.1657-845.2572.963296
$ ... 869 like lines cut
SPC         8001 3865042  123456      0.
SPC         8001 3865090  123456      0.
CQUAD4   2370440 6362100 3865042 3865051 3865048 3865046
CQUAD4   2370448 6362100 3865090 3865097 3865094 3865093
CQUAD4   2370449 6362100 3865098 3865106 3865104 3865102
CQUAD4   2370452 6362100 3865119 3865122 3865121 3865120
CQUAD4   2370453 6362100 3865122 3865119 3865093 3865136
CQUAD4   2370454 6362100 3865122 3865150 3865138 3865121
CQUAD4   2370455 6362100 3865150 3865122 3865136 3865183
CQUAD4   2370462 6362100 3865233 3865236 3865098 3865235
CQUAD4   2370463 6362100 3865237 3865244 3865243 3865239
CQUAD4   2370464 6362100 3865239 3865243 3865246 3865245
CTRIA3   2370465 6362100 3865245 3865246 3865248
CQUAD4   2370466 6362100 3865249 3865257 3865255 3865254
CQUAD4   2370467 6362100 3865260 3865261 3865245 3865248
CTRIA3   2370468 6362100 3865097 3865249 3865254
CQUAD4   2370469 6362100 3865261 3865260 3865262 3865254
CTRIA3   2370477 6362100 3865042 3865377 3865051
CTRIA3   2370479 6362100 3865042 3865046 3865397
CQUAD4   2370480 6362100 3865046 3865403 3865398 3865397
CTRIA3   2370481 6362100 3865236 3865398 3865403
CQUAD4   2370482 6362100 3865403 3865106 3865098 3865236
CQUAD4   2370483 6362100 3865397 3865237 3865377 3865042
CQUAD4   2370484 6362100 3865237 3865397 3865398 3865244
CQUAD4   2370485 6362100 3865377 3865237 3865239 3865404
CTRIA3   2370488 6362100 3865111 3865048 3865408
CTRIA3   2370489 6362100 3865046 3865048 3865111
CQUAD4   2370490 6362100 3865403 3865046 3865111 3865107
CQUAD4   2370491 6362100 3865410 3865413 3865412 3865411
CQUAD4   2370492 6362100 3865410 3865411 3865415 3865414
CQUAD4   2370493 6362100 3865416 3865417 3865413 3865410
CQUAD4   2370494 6362100 3865416 3865119 3865120 3865417
CQUAD4   2370495 6362100 3865410 3865414 3865090 3865416
CQUAD4   2370496 6362100 3865257 3865249 3865090 3865414
CQUAD4   2370497 6362100 3865119 3865416 3865090 3865093
CQUAD4   2370498 6362100 3865418 4352852 3865239 3865245
CTRIA3   2370499 6362100 3865403 3865107 3865106
CTRIA3   2370500 6362100 3865255 3865261 3865254
CQUAD4   2370501 6362100 3865255 3865418 3865245 3865261
CQUAD4   2370502 6362100 3865420 3865424 3865422 3865421
CQUAD4   2370503 6362100 3865424 3865420 3865427 3865426
CQUAD4   2370504 6362100 3865424 3865411 3865412 3865422
CQUAD4   2370505 6362100 4352853 3865415 3865411 3865424
CQUAD4   2370506 6362100 3865428 3865431 3865430 3865429
CQUAD4   2370507 6362100 3865431 3865428 3865407 3865408
CQUAD4   2370508 6362100 3865434 3865435 3865430 3865431
CQUAD4   2370509 6362100 3865436 3865434 3865431 3865408
CTRIA3   2370510 6362100 3865437 3865435 3865434
CTRIA3   2370511 6362100 3865048 3865436 3865408
CQUAD4   2370512 6362100 3865435 3865437 3865420 3865421
CQUAD4   2370513 6362100 3865434 3865436 3865438 3865437
CQUAD4   2370514 6362100 3865436 3865048 3865051 3865438
CQUAD4   2370515 6362100 3865437 3865438 3865427 3865420
CQUAD4   2370516 6362100 3865440 3865451 3865450 3865441
CQUAD4   2370517 6362100 3865451 3865454 3865452 3865450
CQUAD4   2370518 6362100 3865451 3865440 3865456 3865455
CQUAD4   2370519 6362100 3865454 3865458 3865457 3865452
CQUAD4   2370520 6362100 3865454 3865451 3865455 3865459
CQUAD4   2370521 6362100 3865458 3865461 3865460 3865457
CQUAD4   2370522 6362100 3865458 3865454 3865459 3865462
CQUAD4   2370523 6362100 3865461 3865466 3865463 3865460
CQUAD4   2370524 6362100 3865461 3865458 3865462 3865467
CQUAD4   2370525 6362100 3865466 3865470 3865469 3865463
CQUAD4   2370526 6362100 3865466 3865461 3865467 3865471
CQUAD4   2370527 6362100 3865470 3865466 3865471 3865472
CQUAD4   2370528 6362100 3865470 3865474 3865473 3865469
CQUAD4   2370529 6362100 3865474 3865470 3865472 3865475
CQUAD4   2370530 6362100 3865474 3865479 3865478 3865473
CQUAD4   2370531 6362100 3865479 3865474 3865475 3865481
CTRIA3   2370537 6362100 4352846 4352842 3865426
CQUAD4   2370538 6362100 4352842 4352850 4352853 3865426
CQUAD4   2370539 6362100 3865490 3865257 3865414 3865415
CQUAD4   2370540 6362100 3865255 3865257 3865490 3865418
CQUAD4   2370857 6362100 3877431 3877434 3865440 3865441
CQUAD4   2370859 6362100 3865440 3877434 3877437 3865456
CQUAD4   2370886 6362100 3877480 3877475 3877482 3877481
CQUAD4   2370888 6362100 3877484 3877480 3877481 3877485
CQUAD4   2370890 6362100 3877487 3877484 3877485 3877488
CQUAD4   2370891 6362100 3877487 3877490 3877489 3877486
CQUAD4   2370892 6362100 3877490 3877487 3877488 3877491
CQUAD4   2370893 6362100 3877490 3877493 3877492 3877489
CQUAD4   2370894 6362100 3877493 3877490 3877491 3877494
CQUAD4   2370895 6362100 3877493 3877497 3877495 3877492
CQUAD4   2370896 6362100 3877497 3877493 3877494 3877498
CQUAD4   2370897 6362100 3877497 3877501 3877499 3877495
CQUAD4   2370898 6362100 3877501 3877497 3877498 3877502
CQUAD4   2370899 6362100 3877501 3877504 3877503 3877499
CQUAD4   2370900 6362100 3877504 3877501 3877502 3877505
CQUAD4   2370901 6362100 3877504 3877508 3877507 3877503
CQUAD4   2370902 6362100 3877508 3877504 3877505 3877509
$ ... 65 like lines cut
CTRIA3   2371199 6362100 3877960 3877954 3877961
CQUAD4   2371200 6362100 3877962 3877956 3877963 3877968
CQUAD4   2371201 6362100 3877957 3877964 3877969 3877963
CQUAD4   2371204 6362100 3865412 3877964 3877958 3865422
CQUAD4   2371205 6362100 3877966 3877972 3877960 3877961
CQUAD4   2371206 6362100 3877968 3877973 3877966 3877962
CQUAD4   2371207 6362100 3877969 3877974 3877968 3877963
CQUAD4   2371208 6362100 3877967 3877960 3877972 3877975
CQUAD4   2371211 6362100 3877964 3865412 3865413 3877969
CTRIA3   2371212 6362100 3877978 3877968 3877974
CQUAD4   2371213 6362100 3877979 3877973 3877968 3877978
CQUAD4   2371215 6362100 3877974 3877969 3865413 3865417
CQUAD4   2371221 6362100 3865120 3877978 3877974 3865417
CQUAD4   2371222 6362100 3877979 3877978 3877987 3877986
CQUAD4   2371229 6362100 3877978 3865120 3865121 3877987
CQUAD4   2371230 6362100 3877996 3877995 3877986 3877987
CQUAD4   2371235 6362100 3865138 3877996 3877987 3865121
CQUAD4   2372144 6362100 3881931 3881937 3881934 3881933
CQUAD4   2372145 6362100 3881937 3881931 3881940 3881938
CQUAD4   2372146 6362100 3881941 3881931 3881933 3881942
CQUAD4   2372147 6362100 3881943 3881944 3881938 3881940
CQUAD4   2372148 6362100 3881931 3881941 3881945 3881940
CQUAD4   2372149 6362100 3881946 3881941 3881942 3881947
CQUAD4   2372150 6362100 3881944 3881943 3881952 3881950
CQUAD4   2372151 6362100 3881953 3881943 3881940 3881945
CQUAD4   2372152 6362100 3881941 3881946 3881954 3881945
CQUAD4   2372153 6362100 3881956 3881946 3881947 3881957
CQUAD4   2372154 6362100 3881958 3881959 3881950 3881952
CQUAD4   2372155 6362100 3881954 3881960 3881953 3881945
CQUAD4   2372156 6362100 3881943 3881953 3881961 3881952
$ ... 35 like lines cut
CTRIA3   2372192 6362100 3882008 3882006 3881997
CQUAD4   2372193 6362100 3882014 3882004 3881996 3882015
CQUAD4   2372194 6362100 3882016 3882011 3882002 3882012
CQUAD4   2372195 6362100 3882011 3882017 3882008 3882001
CQUAD4   2372196 6362100 3882010 3882018 3882009 3882000
CQUAD4   2372197 6362100 3882008 3882020 3882019 3882006
CQUAD4   2372198 6362100 3882004 3882014 3877491 3877488
CQUAD4   2372199 6362100 3882013 3882022 3882021 3882012
CQUAD4   2372200 6362100 3882023 3882017 3882011 3882016
CQUAD4   2372201 6362100 3882024 3882015 3882009 3882018
CQUAD4   2372202 6362100 3882008 3882017 3882026 3882020
CQUAD4   2372203 6362100 3882028 3882019 3882020 3882029
CTRIA3   2372204 6362100 3882031 3882033 3882032
CQUAD4   2372205 6362100 3882014 3882035 3877494 3877491
CQUAD4   2372206 6362100 3882016 3882021 3882036 3882023
CQUAD4   2372207 6362100 3882029 3882037 3882033 3882028
CQUAD4   2372208 6362100 3882038 3882021 3882022 3882039
CQUAD4   2372209 6362100 3882024 3882032 3882040 3882035
CQUAD4   2372210 6362100 3882037 3882041 3882032 3882033
CQUAD4   2372211 6362100 3882026 3882017 3882023 3882042
CQUAD4   2372212 6362100 3882020 3882026 3882044 3882029
CQUAD4   2372213 6362100 3882035 3882040 3877498 3877494
CQUAD4   2372214 6362100 3882045 3882036 3882021 3882038
CQUAD4   2372215 6362100 3882041 3882047 3882040 3882032
CQUAD4   2372216 6362100 3882029 3882044 3882049 3882037
CQUAD4   2372217 6362100 3882042 3882023 3882036 3882050
CQUAD4   2372218 6362100 3882026 3882042 3882051 3882044
CQUAD4   2372219 6362100 3882053 3882038 3882039 3882054
CQUAD4   2372220 6362100 3882049 3882044 3882051 3882055
CQUAD4   2372221 6362100 3882037 3882049 3882056 3882041
CQUAD4   2372222 6362100 3882050 3882036 3882045 3882057
CQUAD4   2372223 6362100 3882058 3882045 3882038 3882053
CQUAD4   2372224 6362100 3882047 3877502 3877498 3882040
$ ... 11 like lines cut
CTRIA3   2372236 6362100 3882060 3882073 3882067
CQUAD4   2372237 6362100 3882063 3882077 3882070 3882055
CQUAD4   2372238 6362100 3882068 3882069 3877509 3877505
CQUAD4   2372239 6362100 3882070 3882077 3882078 3882069
CTRIA3   2372240 6362100 3882076 3882071 3882062
CQUAD4   2372241 6362100 3882076 3882067 3882073 3882079
CQUAD4   2372242 6362100 3882077 3882064 3882081 3882080
CQUAD4   2372243 6362100 3882082 3882073 3882075 3882083
CQUAD4   2372244 6362100 3882069 3882078 3877513 3877509
CQUAD4   2372245 6362100 3882084 3882086 3882071 3882076
CQUAD4   2372246 6362100 3882087 3882078 3882077 3882080
CQUAD4   2372247 6362100 3882089 3882084 3882076 3882079
CQUAD4   2372248 6362100 3882090 3882091 3882080 3882081
CQUAD4   2372249 6362100 3882092 3882079 3882073 3882082
CQUAD4   2372250 6362100 3882093 3882094 3882086 3882084
CQUAD4   2372251 6362100 3882082 3882083 3882096 3882095
CQUAD4   2372252 6362100 3882084 3882089 3882097 3882093
CQUAD4   2372253 6362100 3882078 3882087 3877516 3877513
CQUAD4   2372254 6362100 3882092 3882098 3882089 3882079
CQUAD4   2372255 6362100 3882099 3882087 3882080 3882091
CQUAD4   2372257 6362100 3882089 3882098 3882102 3882097
CQUAD4   2372258 6362100 3882087 3882099 3877519 3877516
CQUAD4   2372259 6362100 3882098 3882092 3882095 3882103
CQUAD4   2372265 6362100 3882099 3882106 3877522 3877519
CQUAD4   2373575 6362100 3865235 3865098 3865102 3891908
$ ... 23 like lines cut
CTRIA3   2373602 6362100 3891952 3865260 3891949
CQUAD4   2373603 6362100 3891955 3891947 3865094 3891956
CQUAD4   2373604 6362100 3891957 3891946 3891942 3891948
CQUAD4   2373605 6362100 3891963 3891955 3891956 3865262
CQUAD4   2373606 6362100 3891948 3891944 3877495 3877499
CQUAD4   2373607 6362100 3891952 3891963 3865262 3865260
CTRIA3   2373608 6362100 3865183 3865136 3891947
CQUAD4   2373609 6362100 3891945 3891950 3891964 3891949
CQUAD4   2373610 6362100 3891946 3891957 3891969 3891950
CQUAD4   2373611 6362100 3891947 3891955 3891975 3891974
CQUAD4   2373612 6362100 3877503 3891957 3891948 3877499
CTRIA3   2373613 6362100 3891955 3891976 3891975
CQUAD4   2373615 6362100 3891980 3891952 3891949 3891964
CQUAD4   2373617 6362100 3891981 3891950 3891969 3891982
CQUAD4   2373618 6362100 3891957 3877503 3877507 3891969
CQUAD4   2373619 6362100 3891963 3891952 3891980 3891983
CQUAD4   2373621 6362100 3891981 3891984 3891980 3891964
CQUAD4   2373622 6362100 3891982 3891969 3877507 3877511
CQUAD4   2373624 6362100 3891984 3891987 3891986 3891980
CQUAD4   2373626 6362100 3891989 3891984 3891981 3891982
CTRIA3   2373627 6362100 3891986 3891991 3891990
CQUAD4   2373628 6362100 3877511 3877514 3891989 3891982
CQUAD4   2373632 6362100 3891989 3892006 3891987 3891984
CQUAD4   2373633 6362100 3891991 3891986 3891987 3892007
CQUAD4   2373635 6362100 3891991 3892010 3892009 3891990
CQUAD4   2373638 6362100 3877517 3892006 3891989 3877514
CTRIA3   2373639 6362100 3892007 3891987 3892006
CQUAD4   2373641 6362100 3892008 3892009 3892010 3892040
CQUAD4   2373645 6362100 3892007 3892006 3877517 3877520
CQUAD4   2373647 6362100 3892010 3891991 3892007 3892055
CQUAD4   2373650 6362100 3877524 3892055 3892007 3877520
CQUAD4   2373654 6362100 3892065 3892040 3892010 3892055
CQUAD4   2373661 6362100 3877525 3892065 3892055 3877524
CQUAD4   2374408 6362100 3882009 3882015 3881996 3881982
CTRIA3   2374421 6362100 3882092 3882082 3882095
CTRIA3   2374429 6362100 3882012 3882021 3882016
CQUAD4   2374442 6362100 3881976 3881968 3881967 3881975
CTRIA3   2374451 6362100 3877975 3877972 3877993
CQUAD4   2374473 6362100 3882100 3882106 3882099 3882091
CTRIA3   2374487 6362100 3891930 3891935 3891928
CQUAD4   2374497 6362100 3877916 3877911 3877912 3877923
CQUAD4   2374507 6362100 3898706 3882010 3881999 3882005
CQUAD4   2374515 6362100 3882068 3882047 3882041 3882056
CTRIA3   2374542 6362100 3865097 3865090 3865249
CTRIA3   2374545 6362100 3891981 3891964 3891950
CQUAD4   2374549 6362100 3865254 3865262 3891956 3865097
CTRIA3   2374551 6362100 3891956 3865094 3865097
CQUAD4   2374561 6362100 3882024 3882035 3882014 3882015
CQUAD4   2374585 6362100 3877523 3877524 3877520 3877521
CQUAD4   2374607 6362100 3882070 3882056 3882049 3882055
CTRIA3   2374610 6362100 3882094 3882090 3882086
CQUAD4   2374632 6362100 3891963 3891983 3891976 3891955
CQUAD4   2374646 6362100 3877437 3877911 3877916 3865456
CQUAD4   2374652 6362100 3882031 3882018 3882010 3898706
CQUAD4   2374653 6362100 3882018 3882031 3882032 3882024
CQUAD4   2374667 6362100 3882005 3881999 3881983 3881998
CQUAD4   2374669 6362100 3881998 3881983 3881974 3881987
CQUAD4   2374670 6362100 3881987 3881974 3881968 3881976
CTRIA3   2374680 6362100 3882059 3882050 3882065
CTRIA3   2374681 6362100 3882064 3882077 3882063
CQUAD4   2374682 6362100 3882055 3882051 3882059 3882063
CQUAD4   2374683 6362100 3891990 3891976 3891983 3891986
CTRIA3   2374684 6362100 3891983 3891980 3891986
CQUAD4   2374714 6362100 3877904 3898906 3898907 3877903
CQUAD4   2374715 6362100 3898906 3877434 3877431 3878453
CQUAD4   2374716 6362100 3877437 3877434 3898906 3877904
CQUAD4   2374719 6362100 3865183 3891947 3891974 3891977
CQUAD4   2374737 6362100 3882100 3882091 3882090 3882094
CQUAD4   2374744 6362100 4352845 4352843 3865051 3865377
CQUAD4   2374745 6362100 4352840 4352844 4352842 4352849
CTRIA3   2374746 6362100 4352847 3865427 3865438
CQUAD4   2374747 6362100 3865438 3865051 4352843 4352847
CTRIA3   2374748 6362100 4352846 3865426 3865427
CQUAD4   2374749 6362100 3865377 3865404 4352844 4352845
CQUAD4   2374750 6362100 4352848 4352847 4352843 4352838
CTRIA3   2374751 6362100 3865418 4352851 4352852
CTRIA3   2374752 6362100 4352846 3865427 4352847
CQUAD4   2374753 6362100 4352841 4352845 4352844 4352840
CQUAD4   2374754 6362100 3865490 4352850 4352851 3865418
CQUAD4   2374755 6362100 4352839 4352846 4352847 4352848
CQUAD4   2374756 6362100 4352838 4352843 4352845 4352841
CQUAD4   2374757 6362100 4352849 4352842 4352846 4352839
CTRIA3   2374758 6362100 4352852 3865404 3865239
CTRIA3   2374759 6362100 3865426 4352853 3865424
CQUAD4   2374760 6362100 4352850 3865490 3865415 4352853
CQUAD4   2374761 6362100 4352851 4352844 3865404 4352852
CQUAD4   2374762 6362100 4352850 4352842 4352844 4352851
CQUAD4   2382026 6362500 3873644 3873648 3873646 3873645
CQUAD4   2382031 6362500 3874302 3874308 3874305 3874304
CTRIA3   2382032 6362500 3874311 3874315 3874314
CQUAD4   2382034 6362500 3874339 3874342 3874341 3874340
CQUAD4   2382040 6362500 3874361 3874365 3874364 3874363
CQUAD4   2382041 6362500 3874366 3874372 3874371 3874369
CTRIA3   2382043 6362500 3874380 3874384 3874381
CQUAD4   2382044 6362500 3874385 3874305 3874365 3874386
CQUAD4   2382045 6362500 3874387 3874304 3874305 3874385
CQUAD4   2382046 6362500 3874371 3874390 3874386 3874369
CQUAD4   2382047 6362500 3874363 3874364 3874392 3874391
CQUAD4   2382048 6362500 3874395 3874403 3874402 3874399
CTRIA3   2382050 6362500 3874392 3874407 3874406
CQUAD4   2382051 6362500 3874395 3874409 3874408 3874403
CQUAD4   2382054 6362500 3874427 3874432 3874384 3874428
CQUAD4   2382055 6362500 3874478 3874482 3874481 3874480
CQUAD4   2382056 6362500 3874483 3874485 3874484 3874381
CQUAD4   2382057 6362500 3874380 3874381 3874487 3874486
CQUAD4   2382059 6362500 3874491 3874496 3874495 3874494
CQUAD4   2382060 6362500 3874480 3874498 3874497 3874478
CTRIA3   2382062 6362500 3874506 3874510 3874508
CTRIA3   2382065 6362500 3874519 3874521 3874520
CQUAD4   2382067 6362500 3874545 3874548 3874547 3874498
CQUAD4   2382069 6362500 3874552 3873644 3874556 3874553
CTRIA3   2382075 6362500 3874578 3874580 3874579
CQUAD4   2382077 6362500 3874605 3874609 3874608 3874607
CTRIA3   2382080 6362500 3874390 3874617 3874616
CTRIA3   2382081 6362500 3874603 3874484 3874618
CQUAD4   2382086 6362500 3874578 3874636 3874635 3874634
CQUAD4   2382089 6362500 3874644 3874650 3874646 3874645
CTRIA3   2382090 6362500 3874369 3874361 3874366
CQUAD4   2382091 6362500 3874603 3874487 3874381 3874484
CQUAD4   2382092 6362500 3874655 3874658 3874657 3874656
CQUAD4   2382093 6362500 3874311 3874314 3874402 3874403
CQUAD4   2382096 6362500 3874548 3874545 3874756 3874755
CQUAD4   2382099 6362500 3874823 3874822 3874818 3874824
CQUAD4   2382100 6362500 3873648 3874832 3874823 3874831
CQUAD4   2382101 6362500 3874845 3874314 3874824 3874818
CTRIA3   2382104 6362500 3874315 3874852 3874831
CQUAD4   2382106 6362500 3874822 3874823 3874832 3874856
CTRIA3   2382107 6362500 3874831 3873646 3873648
CQUAD4   2382108 6362500 3873644 3873645 3874864 3874556
CQUAD4   2382109 6362500 3874556 3874864 3874521 3874519
CQUAD4   2382110 6362500 3874402 3874314 3874845 3874869
CQUAD4   2382111 6362500 3874408 3874873 3874311 3874403
CQUAD4   2382112 6362500 3874636 3874874 3874873 3874408
CQUAD4   2382113 6362500 3873644 3874552 3874832 3873648
CQUAD4   2382114 6362500 3874553 3874556 3874519 3874875
CTRIA3   2382115 6362500 3874520 3874875 3874519
CTRIA3   2382116 6362500 3874876 3874878 3874877
CQUAD4   2382117 6362500 3874311 3874879 3874852 3874315
CQUAD4   2382118 6362500 3874656 3874879 3874311 3874873
CQUAD4   2382119 6362500 3874873 3874874 3874655 3874656
CQUAD4   2382120 6362500 3874655 3874874 3874579 3874880
CTRIA3   2382121 6362500 3874578 3874886 3874580
CQUAD4   2382122 6362500 3874889 3874892 3874891 3874890
CTRIA3   2382123 6362500 3874893 3874891 3874892
CQUAD4   2382131 6362500 3874931 3874875 3874520 3874496
CQUAD4   2382135 6362500 3874931 3874630 3874541 3874942
CQUAD4   2382137 6362500 3874832 3874552 3874940 3874856
CQUAD4   2382138 6362500 3874875 3874931 3874942 3874553
CQUAD4   2382139 6362500 3874399 3874402 3874869 3874943
CQUAD4   2382141 6362500 3874408 3874409 3874635 3874636
CQUAD4   2382142 6362500 3874634 3874952 3874886 3874578
CQUAD4   2382144 6362500 3874952 3874955 3874889 3874886
CQUAD4   2382146 6362500 3874970 3874975 3874973 3874972
CQUAD4   2382147 6362500 3874339 3874986 3874985 3874342
CQUAD4   2382148 6362500 3874986 3874339 3874988 3874987
CQUAD4   2382149 6362500 3874989 3874991 3874987 3874988
CQUAD4   2382150 6362500 3874991 3874989 3874994 3874992
CQUAD4   2382153 6362500 3875018 3875010 3874494 3874495
CQUAD4   2382154 6362500 3874495 3874496 3874520 3875019
CQUAD4   2382161 6362500 3875058 3875059 3874890 3874891
CQUAD4   2382162 6362500 3875059 3875058 3875061 3875060
CQUAD4   2382163 6362500 3874485 3875062 3874618 3874484
CQUAD4   2382164 6362500 3875054 3875058 3874891 3874893
CQUAD4   2382165 6362500 3875058 3875054 3875055 3875061
$ ... 5 like lines cut
CTRIA3   2382184 6362500 3874756 3874481 3875159
CQUAD4   2382185 6362500 3875060 3875160 3874880 3875059
CQUAD4   2382186 6362500 3875160 3875060 3875062 3875161
CQUAD4   2382187 6362500 3874485 3875162 3875161 3875062
CQUAD4   2382188 6362500 3874427 3875157 3874994 3874432
CQUAD4   2382189 6362500 3874428 3874384 3874380 3874506
CQUAD4   2382195 6362500 3875189 3874972 3874973 3874616
CTRIA3   2382196 6362500 3874617 3875189 3874616
CQUAD4   2382203 6362500 3874380 3874486 3874510 3874506
CQUAD4   2382213 6362500 3875142 3875240 3875238 3875141
CQUAD4   2382215 6362500 3875240 3875142 3874877 3874970
CTRIA3   2382217 6362500 3875240 3874970 3874972
CQUAD4   2382218 6362500 3875243 3875240 3874972 3875189
CQUAD4   2382219 6362500 3874617 3875245 3875244 3875189
CQUAD4   2382220 6362500 3874617 3874644 3874645 3875245
CQUAD4   2382221 6362500 3875250 3875251 3874478 3874497
CQUAD4   2382222 6362500 3875250 3874497 3875253 3875252
CTRIA3   2382241 6362500 3874305 3874364 3874365
CQUAD4   2382242 6362500 3874305 3874308 3874392 3874364
CQUAD4   2382243 6362500 3874308 3875286 3874407 3874392
CQUAD4   2382244 6362500 3875286 3874481 3874482 3874407
CQUAD4   2382252 6362500 3874498 3875319 3875253 3874497
CQUAD4   2382253 6362500 3875157 3874427 3874548 3874755
CQUAD4   2382254 6362500 3874426 3874391 3874392 3874406
CQUAD4   2382255 6362500 3875319 3875294 3875296 3875253
CQUAD4   2382258 6362500 3874386 3874365 3874361 3874369
CQUAD4   2382259 6362500 3874482 3875356 3874406 3874407
CQUAD4   2382260 6362500 3875251 3875356 3874482 3874478
CTRIA3   2382261 6362500 3874387 3875358 3874304
CQUAD4   2382262 6362500 3875358 3874986 3874987 3875362
CTRIA3   2382263 6362500 3875369 3874987 3874991
CQUAD4   2382264 6362500 3874987 3875369 3875370 3875362
CQUAD4   2382265 6362500 3875370 3875371 3874308 3874302
CQUAD4   2382266 6362500 3874991 3875376 3875375 3875369
CTRIA3   2382267 6362500 3875371 3875286 3874308
CQUAD4   2382268 6362500 3874991 3874992 3875158 3875376
CQUAD4   2382269 6362500 3875377 3875286 3875371 3875375
CQUAD4   2382270 6362500 3875377 3875159 3874481 3875286
CQUAD4   2382271 6362500 3874548 3874427 3874428 3874547
CQUAD4   2382272 6362500 3874428 3874506 3875384 3874547
CQUAD4   2382273 6362500 3875384 3875319 3874498 3874547
CQUAD4   2382274 6362500 3875384 3874506 3874508 3874614
CTRIA3   2382275 6362500 3875384 3874614 3875294
CQUAD4   2382279 6362500 3875392 3874366 3874361 3874363
CQUAD4   2382281 6362500 3874363 3874391 3874423 3875406
CQUAD4   2382282 6362500 3875392 3874363 3875406 3875408
CQUAD4   2382303 6362500 3875573 3874406 3875356 3875574
CQUAD4   2382304 6362500 3875574 3875356 3875251 3875577
CQUAD4   2382306 6362500 3875577 3875251 3875250 3875590
CTRIA3   2382313 6362500 3874994 3875157 3874992
CTRIA3   2382316 6362500 3874385 3874616 3874973
CQUAD4   2382318 6362500 3874644 3874617 3874390 3874371
CQUAD4   2382319 6362500 3875062 3875060 3875061 3874618
CQUAD4   2382321 6362500 3875019 3874520 3883253 3874341
CQUAD4   2382322 6362500 3882812 3875439 3874893 3874892
CQUAD4   2382333 6362500 3875019 3874876 3875018 3874495
CTRIA3   2382336 6362500 3875189 3875244 3875243
CQUAD4   2382342 6362500 3873646 3883256 3883255 3873645
CQUAD4   2382344 6362500 3874886 3874889 3874890 3874580
CQUAD4   2382346 6362500 3875391 3874426 3874406 3875573
CQUAD4   2382351 6362500 3874605 3874340 3883257 3874609
CQUAD4   2382352 6362500 3874630 3874931 3874496 3874491
CQUAD4   2382354 6362500 3874852 3874879 3883258 3883256
CQUAD4   2382356 6362500 3874390 3874616 3874385 3874386
CQUAD4   2382357 6362500 3875376 3875158 3875159 3875377
CTRIA3   2382358 6362500 3875376 3875377 3875375
CQUAD4   2382359 6362500 3874618 3875061 3875055 3874300
CQUAD4   2382360 6362500 3874371 3874372 3874650 3874644
CTRIA3   2382362 6362500 3874302 3875362 3875370
CTRIA3   2382363 6362500 3875384 3875294 3875319
CTRIA3   2382364 6362500 3874608 3883259 3874607
CQUAD4   2382365 6362500 3874985 3874986 3875358 3874387
CQUAD4   2382366 6362500 3875358 3875362 3874302 3874304
CQUAD4   2382368 6362500 3875158 3874755 3874756 3875159
CQUAD4   2382370 6362500 3883256 3873646 3874831 3874852
CQUAD4   2382371 6362500 3873645 3883255 3883261 3874864
CQUAD4   2382372 6362500 3874864 3883261 3883262 3874521
CQUAD4   2382373 6362500 3883262 3883253 3874520 3874521
CQUAD4   2382374 6362500 3874342 3874876 3875019 3874341
CQUAD4   2382375 6362500 3874890 3874880 3874579 3874580
CQUAD4   2382376 6362500 3874480 3874756 3874545 3874498
CTRIA3   2382377 6362500 3874480 3874481 3874756
CTRIA3   2382378 6362500 3874314 3874315 3874824
CQUAD4   2382380 6362500 3874607 3883259 3874994 3874989
CQUAD4   2382383 6362500 3882812 3874892 3874889 3874955
CQUAD4   2382386 6362500 3874985 3874878 3874876 3874342
CQUAD4   2382387 6362500 3874823 3874824 3874315 3874831
CTRIA3   2382388 6362500 3874890 3875059 3874880
CQUAD4   2382389 6362500 3874485 3874483 3883259 3875162
CQUAD4   2382390 6362500 3874483 3874432 3874994 3883259
CQUAD4   2382391 6362500 3883256 3883258 3883304 3883255
CQUAD4   2382392 6362500 3883304 3883305 3883261 3883255
CQUAD4   2382393 6362500 3883262 3883261 3883305 3883306
CQUAD4   2382394 6362500 3883257 3883253 3883262 3883306
CQUAD4   2382395 6362500 3883258 3874657 3883307 3883304
CTRIA3   2382396 6362500 3883307 3883305 3883304
CQUAD4   2382397 6362500 3874879 3874656 3874657 3883258
CTRIA3   2382398 6362500 3883306 3874609 3883257
CQUAD4   2382399 6362500 3874340 3874341 3883253 3883257
CQUAD4   2382400 6362500 3874658 3883308 3883307 3874657
CQUAD4   2382401 6362500 3874988 3874339 3874340 3874605
CQUAD4   2382402 6362500 3874655 3874880 3875160 3874658
CQUAD4   2382403 6362500 3874989 3874988 3874605 3874607
CQUAD4   2382404 6362500 3875161 3883308 3874658 3875160
CQUAD4   2382405 6362500 3875161 3875162 3883310 3883308
CQUAD4   2382406 6362500 3883259 3874608 3883310 3875162
CQUAD4   2382407 6362500 3874970 3874877 3874878 3874975
CQUAD4   2382408 6362500 3874387 3874975 3874878 3874985
CQUAD4   2382409 6362500 3874973 3874975 3874387 3874385
CQUAD4   2382413 6362500 3874874 3874636 3874578 3874579
CQUAD4   2442582 6453100 4120679 4120678 4120677 4120897
CTRIA3   2442583 6453100 4120681 4120680 4120679
CQUAD4   2442584 6453100 4120682 4120683 4120678 4120679
CQUAD4   2442585 6453100 4120702 4120705 4120704 4120703
CQUAD4   2442586 6453100 4120706 4120707 4120703 4120704
CTRIA3   2442587 6453100 4120704 4120693 4120706
CQUAD4   2442588 6453100 4120712 4120694 4120710 4128932
CTRIA3   2442589 6453100 4128932 4120711 4120683
CQUAD4   2442590 6453100 4120683 4120682 4120712 4128932
CQUAD4   2442591 6453100 4120708 4120737 4120702 4120703
CTRIA3   2442593 6453100 4120740 4120739 4120742
CQUAD4   2442594 6453100 4120741 4120745 4120744 4120743
CQUAD4   2442595 6453100 4120746 4120747 4120744 4120745
CQUAD4   2442596 6453100 4120737 4120747 4120746 4120748
CTRIA3   2442597 6453100 4120747 4120737 4120708
CQUAD4   2442700 6453100 4120898 4120901 4120900 4120899
CQUAD4   2442701 6453100 4120901 4120898 4120903 4120902
CQUAD4   2442702 6453100 4120896 4120677 4120902 4120903
CQUAD4   2442703 6453100 4120902 4120678 4120683 4120711
CTRIA3   2442704 6453100 4120680 4120682 4120679
CQUAD4   2442705 6453100 4120694 4120704 4120705 4120710
CTRIA3   2442706 6453100 4120693 4120704 4120694
CQUAD4   2442707 6453100 4120709 4120710 4120705 4132223
CQUAD4   2442708 6453100 4120904 4120907 4120906 4120905
CQUAD4   2442709 6453100 4120910 4120913 4120914 4128936
CQUAD4   2442710 6453100 4120915 4120916 4120910 4128936
CQUAD4   2442711 6453100 4120917 4120913 4120910 4120911
CQUAD4   2442712 6453100 4120911 4120910 4120916 4120918
CQUAD4   2442713 6453100 4120911 4120912 4120919 4120917
CQUAD4   2442714 6453100 4120918 4120920 4120912 4120911
CQUAD4   2442715 6453100 4120709 4120919 4120912 4128932
CQUAD4   2442716 6453100 4128932 4120912 4120920 4120711
CQUAD4   2442717 6453100 4120702 4120737 4120748 4132222
CTRIA3   2442718 6453100 4120707 4120708 4120703
CQUAD4   2442719 6453100 4120922 4120921 4120742 4120739
CQUAD4   2442726 6453100 4120932 4120935 4120934 4120933
CQUAD4   2442727 6453100 4120935 4120932 4120937 4120936
CQUAD4   2442728 6453100 4120938 4120939 4120936 4120937
CQUAD4   2442729 6453100 4120939 4120938 4120749 4120750
CQUAD4   2442730 6453100 4128908 4120943 4120949 4120948
CQUAD4   2442731 6453100 4128892 4120951 4120950 4120945
CTRIA3   2442732 6453100 4120949 4120944 4128875
CQUAD4   2442733 6453100 4120945 4120950 4120952 4128906
CQUAD4   2442734 6453100 4120945 4128906 4120943 4128908
CQUAD4   2442735 6453100 4120943 4128817 4120944 4120949
CQUAD4   2442736 6453100 4128817 4120745 4120741 4120944
CQUAD4   2442737 6453100 4128906 4120952 4120953 4120946
CQUAD4   2442738 6453100 4120946 4120953 4120748 4120746
CTRIA3   2442885 6453100 4131650 4124333 4131597
CQUAD4   2442886 6453100 4124340 4124338 4128855 4124342
CQUAD4   2442887 6453100 4124334 4124339 4124337 4124331
CTRIA3   2442888 6453100 4124342 4128855 4124336
CQUAD4   2442889 6453100 4124341 4124339 4124334 4124318
CTRIA3   2442890 6453100 4124318 4124334 4131512
CQUAD4   2442891 6453100 4124344 4124341 4124318 4124348
CQUAD4   2442892 6453100 4124318 4131512 4131514 4124348
CQUAD4   2442893 6453100 4128959 4124346 4131514 4131512
CQUAD4   2442894 6453100 4124349 4124347 4124350 4124351
CQUAD4   2442895 6453100 4124347 4124349 4124346 4128959
CQUAD4   2442896 6453100 4124352 4124348 4131514 4124353
CTRIA3   2442897 6453100 4128953 4124354 4131567
CQUAD4   2442898 6453100 4124356 4124319 4124320 4124360
CTRIA3   2442927 6453100 4124332 4124335 4124696
CTRIA3   2442939 6453100 4132201 4120696 4120695
CQUAD4   2442940 6453100 4128939 4128940 4124355 4128935
CQUAD4   2442941 6453100 4126789 4126788 4120899 4120900
CQUAD4   2442942 6453100 4126790 4120898 4120899 4126791
CQUAD4   2442943 6453100 4120903 4120898 4126790 4126792
CQUAD4   2442944 6453100 4120901 4120918 4120916 4120900
CQUAD4   2442945 6453100 4120920 4120918 4120901 4120902
CQUAD4   2442946 6453100 4120900 4120916 4120915 4126789
CQUAD4   2442947 6453100 4126795 4120914 4120913 4120905
CQUAD4   2442948 6453100 4126793 4124344 4124348 4132195
CQUAD4   2442949 6453100 4126794 4132195 4124348 4124352
CQUAD4   2442950 6453100 4131431 4132195 4126794 4128938
CQUAD4   2442951 6453100 4120913 4120917 4120904 4120905
CQUAD4   2442952 6453100 4120909 4120919 4120709 4132223
CQUAD4   2442953 6453100 4128943 4124343 4128933 4128944
CQUAD4   2442954 6453100 4126796 4126795 4120905 4120906
CQUAD4   2442955 6453100 4120907 4120952 4120950 4120906
CQUAD4   2442956 6453100 4120908 4120953 4120952 4120907
CQUAD4   2442957 6453100 4120904 4120917 4120919 4120909
CQUAD4   2442958 6453100 4120748 4120953 4120908 4132222
CQUAD4   2442959 6453100 4120906 4120950 4120951 4126796
CTRIA3   2442960 6453100 4120947 4120948 4126797
CQUAD4   2442961 6453100 4126798 4126797 4120948 4120949
CQUAD4   2442962 6453100 4120949 4128875 4126799 4126798
CQUAD4   2442963 6453100 4120742 4120921 4126799 4128875
CTRIA3   2442964 6453100 4124340 4126800 4124338
CTRIA3   2442965 6453100 4126801 4124338 4126800
CQUAD4   2442966 6453100 4130382 4128941 4120951 4128892
CQUAD4   2442967 6453100 4126803 4120932 4120933 4126804
CQUAD4   2442968 6453100 4120932 4126803 4128878 4120937
CQUAD4   2442969 6453100 4120938 4120937 4128878 4126805
CQUAD4   2442970 6453100 4120938 4126805 4120922 4120749
CQUAD4   2442971 6453100 4126806 4128882 4120933 4120934
CQUAD4   2442972 6453100 4126804 4126807 4120947 4126797
CQUAD4   2442973 6453100 4126803 4126804 4126797 4126798
CQUAD4   2442974 6453100 4128878 4126803 4126798 4126799
CQUAD4   2442975 6453100 4128878 4126799 4120921 4126805
CTRIA3   2442976 6453100 4126805 4120921 4120922
CQUAD4   2443063 6453100 4126929 4126931 4126930 4126791
CQUAD4   2443064 6453100 4126932 4126790 4126791 4126930
CQUAD4   2443065 6453100 4126790 4126932 4126933 4126792
CQUAD4   2443066 6453100 4128930 4126936 4126940 4126931
CTRIA3   2443067 6453100 4124360 4126939 4124356
CQUAD4   2443073 6453100 4126791 4120899 4126788 4126929
CQUAD4   2443074 6453100 4128939 4124357 4126939 4128930
CQUAD4   2443076 6453100 4128944 4124345 4126793 4128942
CQUAD4   2443077 6453100 4124335 4126801 4126802 4124696
CTRIA3   2443078 6453100 4126801 4124335 4124338
CQUAD4   2443079 6453100 4128882 4126807 4126804 4120933
CTRIA3   2443162 6453100 4124340 4124343 4126800
CTRIA3   2443163 6453100 4126939 4124357 4124356
CTRIA3   2443164 6453100 4124344 4126793 4124345
CTRIA3   2443165 6453100 4124352 4124355 4126794
CQUAD4   2443168 6453100 4128938 4128940 4126789 4120915
CQUAD4   2443169 6453100 4128941 4128943 4126796 4120951
CTRIA3   2443179 6453100 4132008 4126934 4126933
CQUAD4   2443180 6453100 4127290 4126935 4126934 4132008
CQUAD4   2443183 6453100 4127290 4126849 4120696 4126935
CQUAD4   2443193 6453100 4120742 4120741 4120743 4120740
CQUAD4   2443205 6453100 4128906 4120946 4128817 4120943
CTRIA3   2443210 6453100 4120902 4120677 4120678
CTRIA3   2443211 6453100 4120902 4120711 4120920
CQUAD4   2443246 6453100 4130382 4128892 4120947 4126802
CQUAD4   2443250 6453100 4120907 4120904 4120909 4120908
CQUAD4   2443260 6453100 4126792 4126933 4126934 4120896
CQUAD4   2443261 6453100 4124336 4128855 4131520 4131467
CTRIA3   2443262 6453100 4120903 4126792 4120896
CQUAD4   2443264 6453100 4128882 4126806 4124333 4124332
CQUAD4   2443265 6453100 4120947 4126807 4124696 4126802
CQUAD4   2443272 6453100 4120741 4120742 4128875 4120944
CQUAD4   2443297 6453100 4124342 4128901 4128954 4124340
CQUAD4   2443298 6453100 4120897 4120896 4126934 4126935
CQUAD4   2443318 6453100 4126794 4124355 4128940 4128938
CQUAD4   2443320 6453100 4126788 4126789 4128940 4128939
CQUAD4   2443323 6453100 4131431 4128936 4120914 4128942
CQUAD4   2443324 6453100 4130382 4126801 4126800 4128941
CTRIA3   2443325 6453100 4130382 4126802 4126801
CQUAD4   2443326 6453100 4126929 4126788 4128939 4128930
CQUAD4   2443330 6453100 4131431 4128938 4120915 4128936
CQUAD4   2443332 6453100 4120946 4120746 4120745 4128817
CTRIA3   2443336 6453100 4128935 4124357 4128939
CQUAD4   2443337 6453100 4128954 4128933 4124343 4124340
CTRIA3   2443339 6453100 4128944 4128933 4124345
CQUAD4   2443345 6453100 4126800 4124343 4128943 4128941
CTRIA3   2443346 6453100 4128908 4120948 4120947
CQUAD4   2443352 6453100 4131567 4124351 4124350 4124319
CQUAD4   2443355 6453100 4126795 4128944 4128942 4120914
CQUAD4   2443356 6453100 4126795 4126796 4128943 4128944
CQUAD4   2443357 6453100 4128882 4124332 4124696 4126807
CTRIA3   2443358 6453100 4128932 4120710 4120709
CQUAD4   2443362 6453100 4126936 4128930 4126939 4124360
CTRIA3   2443363 6453100 4120897 4120677 4120896
CTRIA3   2443368 6453100 4128930 4126931 4126929
CQUAD4   2443374 6453100 4120947 4128892 4120945 4128908
CQUAD4   2443376 6453100 4128953 4124356 4124357 4128935
CQUAD4   2443379 6453100 4124345 4128933 4128954 4124344
CQUAD4   2443427 6453100 4132201 4120897 4126935 4120696
CQUAD4   2443454 6453100 4131650 4131647 4124335 4124332
CQUAD4   2443506 6453100 4128839 4132123 4120681 4120695
CQUAD4   2443507 6453100 4126849 4128839 4120695 4120696
CQUAD4   2443508 6453100 4131433 4120697 4131708 4132062
CQUAD4   2443509 6453100 4132132 4131433 4132062 4132139
CQUAD4   2443511 6453100 4132132 4131071 4131533 4131433
CQUAD4   2443512 6453100 4131429 4120699 4120698 4131533
CQUAD4   2443517 6453100 4131071 4131076 4131429 4131533
CQUAD4   2443613 6453100 4131134 4131130 4120740 4120743
CQUAD4   2443624 6453100 4131143 4131134 4120743 4120744
CQUAD4   2443632 6453100 4131134 4131142 4131139 4131130
CQUAD4   2443634 6453100 4131134 4131143 4131149 4131142
CQUAD4   2443635 6453100 4131150 4131143 4120744 4120747
CQUAD4   2443641 6453100 4131142 4131423 4131145 4131139
CQUAD4   2443644 6453100 4131423 4131142 4131149 4131159
CQUAD4   2443646 6453100 4131143 4131150 4131156 4131149
$ ... 14 like lines cut
CTRIA3   2443687 6453100 4131167 4131737 4131174
CQUAD4   2443688 6453100 4131173 4131168 4131170 4131705
CQUAD4   2443689 6453100 4131462 4131170 4131169 4120680
CQUAD4   2443696 6453100 4131175 4131705 4131707 4131422
CQUAD4   2443698 6453100 4120680 4120681 4132123 4131462
CQUAD4   2443701 6453100 4131173 4131705 4131175 4131752
CTRIA3   2443706 6453100 4131422 4131663 4130388
CTRIA3   2443712 6453100 4120698 4120699 4131780
CQUAD4   2444065 6453100 4131431 4128942 4126793 4132195
CQUAD4   2444132 6453100 4131782 4131664 4131152 4131164
CQUAD4   2444167 6453100 4124337 4124336 4131467 4124331
CTRIA3   2444180 6453100 4131514 4124346 4124353
CQUAD4   2444199 6453100 4131752 4131420 4131754 4131706
CQUAD4   2444220 6453100 4124319 4124350 4124358 4124320
CQUAD4   2444227 6453100 4120697 4131433 4131533 4120698
CQUAD4   2444230 6453100 4131567 4124319 4124356 4128953
CQUAD4   2444239 6453100 4131626 4131165 4131168 4131173
CQUAD4   2444244 6453100 4131166 4131163 4131156 4131161
CQUAD4   2444272 6453100 4132206 4131420 4131752 4131175
CQUAD4   2444310 6453100 4128954 4128901 4124341 4124344
CQUAD4   2444341 6453100 4131650 4131597 4130365 4131647
CQUAD4   2444374 6453100 4131647 4128855 4124338 4124335
CQUAD4   2444375 6453100 4120698 4131422 4131707 4120697
CTRIA3   2444376 6453100 4131650 4124332 4124333
CQUAD4   2444377 6453100 4131626 4131166 4131161 4131165
CQUAD4   2444390 6453100 4120706 4120693 4131168 4131165
CQUAD4   2444430 6453100 4131170 4131462 4131707 4131705
CQUAD4   2444431 6453100 4131462 4131708 4120697 4131707
CTRIA3   2444452 6453100 4132210 4130387 4131673
CQUAD4   2444467 6453100 4120698 4131780 4131663 4131422
CQUAD4   2444469 6453100 4131422 4130388 4132206 4131175
CQUAD4   2444473 6453100 4131737 4131166 4131626 4131706
CQUAD4   2444503 6453100 4131626 4131173 4131752 4131706
CQUAD4   2444504 6453100 4131737 4131706 4131754 4131174
CTRIA3   2444998 6453100 4132123 4131708 4131462
CQUAD4   2445000 6453100 4132123 4128839 4132062 4131708
CTRIA3   2445019 6453100 4132093 4128839 4126849
CQUAD4   2445027 6453100 4120909 4132223 4132222 4120908
CTRIA3   2445037 6453100 4132201 4120695 4120681
CQUAD4   2445083 6453100 4132139 4132062 4128839 4132093
CQUAD4   2445101 6453100 4120705 4120702 4132222 4132223
CQUAD4   2445119 6453100 4124354 4124355 4124352 4124353
CQUAD4   2445134 6453100 4131647 4130365 4131520 4128855
CQUAD4   2445135 6453100 4128953 4128935 4124355 4124354
CQUAD4   2445145 6453100 4132201 4120681 4120679 4120897
CBAR     3095283    9006 4352856 4352857      1.      0.      0.
RBE2    93107708 4352857  123456 4352838 4352839
RBE2     3107708 4352857  123456 4352838 4352839 4352840 4352841 4352842
+        4352843 4352844 4352845 4352846 4352847 4352848 4352849
RBE2    70700004  700004  123456 3865097 3865237 3865248 3865260 3865412
+        3865414 3865415 3865417 3865418 3865421 3877497 3877504 3877512
+        3877915 3877928 3877930 3877941 3877943 3877945 3877955 3877957
+        3877968 3881976 3881998 3882002 3882017 3882032 3882038 3882044
+        3882056 3882057 3882077 3891934 3891941 3891944 3891957 3891964
+        3891982 4131156 4131165 4131462 4120679 4120704 4120747 4120901
+        4120904 4128906 4130382 4128944 4128940 4126803 4128959 4124334
+        4131520 3874385 3874985 3883262 3874852 3874880 3875162 3874992
+        3874481 3881954 3881982 3882062
$PBAR Property Card
PBARL       9006    9006MSCBML0 ROD
+             3.
$63621TY2_A000H1
PSHELL   6362100 6362100     1.6 6362100         6362100
$63625TY2_A000H1
PSHELL   6362500 6362500     0.8 6362500         6362500
$64531TY2_A000_50
PSHELL   6453100 6453100     1.6 6453100         6453100
$Anonymous SPC SET
SPC1     3000041       1  700004
$Anonymous SPC SET
SPC1     3000042       2  700004
$Anonymous SPC SET
SPC1     3000043       3  700004
$Anonymous SPC SET
SPC1     3000044       4  700004
$Anonymous SPC SET
SPC1     3000045       5  700004
$Anonymous SPC SET
SPC1     3000046       6  700004
SPC         8000    1000  123456      0.
SPC         8000    1001  123456      0.
GRID        1000         446.994-752.772 64.4771
GRID        1001  700004     0.0     0.0     0.0  700004
$--1---][--2---][--3---][--4---][--5---][--6---][--7---][--8---][--9---]
CORD2R    700004         544.012-805.016  14.733 544.012-805.016  15.733
+        545.012-805.016  14.733
$Default MAT1
MAT1        9006 206000.             0.3  7.84-9
$Default MAT1 Material
MAT1     6362100 206000.             0.3  7.84-9
$Default MAT1 Material
MAT1     6362500 206000.             0.3  7.84-9
$Default MAT1 Material
MAT1     6453100 206000.             0.3  7.84-9
$Anonymous SPC SET
SPCADD         1 3800133 3810133 3820011 3820012 3820013 3830011 3830013
$Anonymous SPC SET
SPCADD         2 3000041 3000042 3000043 3000051 3000052 3000053 3010041
+        3010042 3010043 3010051 3010052 3010053
$Anonymous SPC SET
SPCADD         3 3000041 3000042 3000043 3000051 3000052 3000053 3010041
+        3010042 3010043 3010051 3010052 3010053
$Anonymous SPC SET
SPCADD         4 3000041 3000042 3000043 3000051 3000052 3000053 3010041
+        3010042 3010043 3010051 3010052 3010053
$Anonymous SPC SET
SPCADD         5 3000041 3000042 3000043 3000051 3000052 3000053 3010041
+        3010042 3010043 3010051 3010052 3010053
$Anonymous SPC SET
SPCADD         6 3820011 3820012 3820013 3820015 3830011 3830013 3830015
$Anonymous SPC SET
SPCADD         7 3000043 3000053 3010041 3010042 3010043 3010052 3010053
$Anonymous SPC SET
SPCADD         8 3000043 3000051 3000052 3000053 3010043 3010051 3010053
$Anonymous SPC SET
SPCADD         9 3000041 3000042 3000043 3000053 3010041 3010043 3010053
$Anonymous SPC SET
SPCADD        10 3000011 3000012 3000013 3000023 3000032 3000033 3010013
+        3010023 3010033
$Anonymous SPC SET
SPCADD        11 3000041 3000042 3000043 3000052 3000053 3010043 3010053
$Anonymous SPC SET
SPCADD        12 3000043 3000051 3000052 3000053 3010043 3010053 3550043
+        3550053 3550102 3550103 3550113 3750013 3750023
$Anonymous SPC SET
SPCADD        13 3500031 3500032 3500033 3500041 3500042 3500043 3500051
+        3500052 3500053 3500081 3500082 3500083 3500091 3500092 3500093
+        3500101 3500102 3500103 3550041 3550042 3550043 3550051 3550052
+        3550053 3550101 3550102 3550103 3550111 3550112 3800131 3800132
+        3800133 3810131 3810132 3810133 3820011 3820012 3820013 3830011
+        3830012 3830013 3550113
$Anonymous SPC SET
SPCADD        14 3500031 3500032 3500033 3500041 3500042 3500043 3500051
+        3500052 3500053 3500081 3500082 3500083 3500091 3500092 3500093
+        3500101 3500102 3500103 3550041 3550042 3550043 3550051 3550052
+        3550053 3550101 3550102 3550103 3550111 3550112 3800131 3800132
+        3800133 3810131 3810132 3810133 3820011 3820012 3820013 3830011
+        3830012 3830013 3550113
$Anonymous SPC SET
SPCADD        15 3500031 3500032 3500033 3500041 3500042 3500043 3500051
+        3500052 3500053 3500081 3500082 3500083 3500091 3500092 3500093
+        3500101 3500102 3500103 3550041 3550042 3550043 3550051 3550052
+        3550053 3550101 3550102 3550103 3550111 3550112 3800131 3800132
+        3800133 3810131 3810132 3810133 3820011 3820012 3820013 3830011
+        3830012 3830013 3550113
$Anonymous SPC SET
SPCADD        16 3500031 3500032 3500033 3500041 3500042 3500043 3500051
+        3500052 3500053 3500081 3500082 3500083 3500091 3500092 3500093
+        3500101 3500102 3500103 3550041 3550042 3550043 3550051 3550052
+        3550053 3550101 3550102 3550103 3550111 3550112 3800131 3800132
+        3800133 3810131 3810132 3810133 3820011 3820012 3820013 3830011
+        3830012 3830013 3550113
$Anonymous SPC SET
SPCADD        17 3000011 3000012 3000013 3000023 3000033 3010011 3010013
+        3010023 3010033
$Anonymous SPC SET
SPCADD        18 3000013 3000023 3000031 3000032 3000033 3010013 3010023
+        3010031 3010033
$Anonymous SPC SET
SPCADD        19 3500031 3500032 3500033 3500041 3500042 3500043 3500051
+        3500052 3500053 3500081 3500082 3500083 3500091 3500092 3500093
+        3500101 3500102 3500103 3550041 3550042 3550043 3550051 3550052
+        3550053 3550101 3550102 3550103 3550111 3550112 3800131 3800132
+        3800133 3810131 3810132 3810133 3820011 3820012 3820013 3830011
+        3830012 3830013 3550113
$Anonymous SPC SET
SPCADD        20 3500031 3500032 3500033 3500041 3500042 3500043 3500051
+        3500052 3500053 3500081 3500082 3500083 3500091 3500092 3500093
+        3500101 3500102 3500103 3550041 3550042 3550043 3550051 3550052
+        3550053 3550101 3550102 3550103 3550111 3550112 3800131 3800132
+        3800133 3810131 3810132 3810133 3820011 3820012 3820013 3830011
+        3830012 3830013 3550113
$Anonymous SPC SET
SPCADD        21 3500031 3500032 3500033 3500041 3500042 3500043 3500051
+        3500052 3500053 3500081 3500082 3500083 3500091 3500092 3500093
+        3500101 3500102 3500103 3550041 3550042 3550043 3550051 3550052
+        3550053 3550101 3550102 3550103 3550111 3550112 3800131 3800132
+        3800133 3810131 3810132 3810133 3820011 3820012 3820013 3830011
+        3830012 3830013 3550113
$Anonymous SPC SET
SPCADD        22 3500031 3500032 3500033 3500041 3500042 3500043 3500051
+        3500052 3500053 3500081 3500082 3500083 3500091 3500092 3500093
+        3500101 3500102 3500103 3550041 3550042 3550043 3550051 3550052
+        3550053 3550101 3550102 3550103 3550111 3550112 3800131 3800132
+        3800133 3810131 3810132 3810133 3820011 3820012 3820013 3830011
+        3830012 3830013 3550113
$Anonymous SPC SET
SPCADD        23 3000011 3000012 3000013 3000021 3000022 3000023 3000031
+        3000032 3000033 3000041 3000042 3000043 3000051 3000052 3000053
+        3010011 3010012 3010013 3010021 3010022 3010023 3010031 3010032
+        3010041 3010042 3010043 3010051 3010052 3010053 3010033
$Anonymous MPC SET
MPCADD         1 4780013 4781013 4782001 4783001
$Anonymous MPC SET
MPCADD         2 4700004 4700005 4701004 4701005
$Anonymous MPC SET
MPCADD         3 4700004 4700005 4701004 4701005
$Anonymous MPC SET
MPCADD         4 4700004 4700005 4701004 4701005
$Anonymous MPC SET
MPCADD         5 4700004 4700005 4701004 4701005
$Anonymous MPC SET
MPCADD         6 4780013 4781013 4782001 4783001
$Anonymous MPC SET
MPCADD         7 4700001 4700002 4700003 4700004 4700005 4701001 4701002
+        4701003 4701004 4701005
$Anonymous MPC SET
MPCADD         8 4700001 4700003 4700004 4700005 4701001 4701003 4701004
+        4701005
$Anonymous MPC SET
MPCADD         9 4700001 4700003 4700004 4700005 4701001 4701003 4701004
+        4701005
$Anonymous MPC SET
MPCADD        10 4700001 4700002 4700003 4701001 4701002 4701003
$Anonymous MPC SET
MPCADD        11 4700004 4700005 4701004 4701005
$Anonymous MPC SET
MPCADD        12 4700004 4700005 4701004 4701005
$Anonymous MPC SET
MPCADD        13 4780013 4781013 4782001 4783001
$Anonymous MPC SET
MPCADD        14 4780013 4781013 4782001 4783001
$Anonymous MPC SET
MPCADD        15 4780013 4781013 4782001 4783001
$Anonymous MPC SET
MPCADD        16 4780013 4781013 4782001 4783001
$Anonymous MPC SET
MPCADD        17 4700001 4700002 4700003 4701001 4701002 4701003
$Anonymous MPC SET
MPCADD        18 4700001 4700002 4700003 4701001 4701002 4701003
$Anonymous MPC SET
MPCADD        19 4780013 4781013 4782001 4783001
$Anonymous MPC SET
MPCADD        20 4780013 4781013 4782001 4783001
$Anonymous MPC SET
MPCADD        21 4780013 4781013 4782001 4783001
$Anonymous MPC SET
MPCADD        22 4780013 4781013 4782001 4783001
$Anonymous MPC SET
MPCADD        23 4700001 4700002 4700003 4700004 4700005 4701001 4701002
+        4701003 4701004 4701005
$--1---][--2---][--3---][--4---][--5---][--6---][--7---][--8---][--9---]
LOAD           1      1.   -500. 2600013   -500. 2610013
$--1---][--2---][--3---][--4---][--5---][--6---][--7---][--8---][--9---]
LOAD           2      1.    500. 2450032    500. 2450062
$--1---][--2---][--3---][--4---][--5---][--6---][--7---][--8---][--9---]
LOAD           3      1.   -500. 2450033   -500. 2450063
$--1---][--2---][--3---][--4---][--5---][--6---][--7---][--8---][--9---]
LOAD           4      1.    500. 2451012    500. 2451022
$--1---][--2---][--3---][--4---][--5---][--6---][--7---][--8---][--9---]
LOAD           5      1.   -500. 2451013   -500. 2451023
$--1---][--2---][--3---][--4---][--5---][--6---][--7---][--8---][--9---]
LOAD           6      1.    500. 2800133   -500. 2810133
$--1---][--2---][--3---][--4---][--5---][--6---][--7---][--8---][--9---]
LOAD           7      1.    333. 2000012    333. 2000022    333. 2000032
$--1---][--2---][--3---][--4---][--5---][--6---][--7---][--8---][--9---]
LOAD           8      1.    500. 2000011    500. 2010011
$--1---][--2---][--3---][--4---][--5---][--6---][--7---][--8---][--9---]
LOAD           9      1.   -500. 2000031   -500. 2010031
$--1---][--2---][--3---][--4---][--5---][--6---][--7---][--8---][--9---]
LOAD          10      1.    1.-3 2001010
$--1---][--2---][--3---][--4---][--5---][--6---][--7---][--8---][--9---]
LOAD          11      1.    1.-3 2001020
$--1---][--2---][--3---][--4---][--5---][--6---][--7---][--8---][--9---]
LOAD          12      1.    1.-3 2001030
$--1---][--2---][--3---][--4---][--5---][--6---][--7---][--8---][--9---]
LOAD          13      1.    1.-3 2001040
$--1---][--2---][--3---][--4---][--5---][--6---][--7---][--8---][--9---]
LOAD          14      1.    1.-3 2001050
$--1---][--2---][--3---][--4---][--5---][--6---][--7---][--8---][--9---]
LOAD          15      1.   1000. 2765013
$--1---][--2---][--3---][--4---][--5---][--6---][--7---][--8---][--9---]
LOAD          16      1.  -1000. 2001013
$--1---][--2---][--3---][--4---][--5---][--6---][--7---][--8---][--9---]
LOAD          17      1.  -1000. 2001023
$--1---][--2---][--3---][--4---][--5---][--6---][--7---][--8---][--9---]
LOAD          18      1.  -1000. 2001033
$--1---][--2---][--3---][--4---][--5---][--6---][--7---][--8---][--9---]
LOAD          19      1.  -1000. 2001043
$--1---][--2---][--3---][--4---][--5---][--6---][--7---][--8---][--9---]
LOAD          20      1.  -1000. 2001053
$ ==============================================================================
LOAD          21      1.  -1000. 2001063
$--1---][--2---][--3---][--4---][--5---][--6---][--7---][--8---][--9---]
LOAD          22      1.   1000. 2766011
$Anonymous LOAD SET
LOAD          23      1.  -1000. 2766013
$--1---][--2---][--3---][--4---][--5---][--6---][--7---][--8---][--9---]
LOAD          24      1.   1000. 2400012
$Anonymous LOAD SET
LOAD          25      1.-100000. 2400014
$Anonymous LOAD SET
LOAD          26      1. 100000. 2400015
$Anonymous LOAD SET
LOAD          27      1.-100000. 2400016
$Anonymous LOAD SET
LOAD          28      1.   1000. 2400042
$Anonymous LOAD SET
LOAD          29      1. 100000. 2400044
$Anonymous LOAD SET
LOAD          30      1. 100000. 2400045
$Anonymous LOAD SET
LOAD          31      1. 100000. 2400046
$Anonymous LOAD SET
LOAD          32      1.  -1000. 2400063
$ANSA_COLOR;9006;PBARL_ROD;.631372570991516;.631372570991516;.509803950786591;1.
$;
$ANSA_COLOR;6362100;PSHELL;.670588254928589;.886274516582489;.345098048448563;1.
$;
$ANSA_COLOR;6362500;PSHELL;0.65490198135376;.796078443527222;.972549021244049;1.
$;
$ANSA_COLOR;6453100;PSHELL;0.91372549533844;.149019613862038;.313725501298904;1.
$;
$ANSA_COLOR;9006;MAT1;.764705896377563;.074509806931019;.270588248968124;1.;
$ANSA_COLOR;6362100;MAT1;.537254929542542;.862745106220245;.972549021244049;1.;
$ANSA_COLOR;6362500;MAT1;.729411780834198;.066666670143604;.329411774873734;1.;
$ANSA_COLOR;6453100;MAT1;.752941191196442;.490196079015732;.537254929542542;1.;
$ANSA_COLOR;1;SPCADD;0.;0.;0.;0.;
$ANSA_COLOR;2;SPCADD;0.;0.;0.;0.;
$ANSA_COLOR;3;SPCADD;0.;0.;0.;0.;
$ANSA_COLOR;4;SPCADD;0.;0.;0.;0.;
$ANSA_COLOR;5;SPCADD;0.;0.;0.;0.;
$ANSA_COLOR;6;SPCADD;0.;0.;0.;0.;
$ANSA_COLOR;7;SPCADD;0.;0.;0.;0.;
$ANSA_COLOR;8;SPCADD;0.;0.;0.;0.;
$ANSA_COLOR;9;SPCADD;0.;0.;0.;0.;
$ANSA_COLOR;10;SPCADD;0.;0.;0.;0.;
$ANSA_COLOR;11;SPCADD;0.;0.;0.;0.;
$ANSA_COLOR;12;SPCADD;0.;0.;0.;0.;
$ANSA_COLOR;13;SPCADD;0.;0.;0.;0.;
$ANSA_COLOR;14;SPCADD;0.;0.;0.;0.;
$ANSA_COLOR;15;SPCADD;0.;0.;0.;0.;
$ANSA_COLOR;16;SPCADD;0.;0.;0.;0.;
$ANSA_COLOR;17;SPCADD;0.;0.;0.;0.;
$ANSA_COLOR;18;SPCADD;0.;0.;0.;0.;
$ANSA_COLOR;19;SPCADD;0.;0.;0.;0.;
$ANSA_COLOR;20;SPCADD;0.;0.;0.;0.;
$ ... 4 like lines cut
$;
$ANSA_COLOR;3000042;SPCADD;.607843160629272;.850980401039124;.733333349227905;1.
$;
$ANSA_COLOR;3000043;SPCADD;.521568655967712;.427450984716415;0.61176472902298;1.
$;
$ANSA_COLOR;3000044;SPCADD;.556862771511078;0.91372549533844;.066666670143604;1.
$;
$ANSA_COLOR;3000045;SPCADD;.713725507259369;.309803932905197;.098039217293262;1.
$;
$ANSA_COLOR;3000046;SPCADD;.996078431606293;.615686297416687;.709803938865662;1.
$;
$ANSA_COLOR;1;MPCADD;0.;0.;0.;0.;
$ANSA_COLOR;2;MPCADD;0.;0.;0.;0.;
$ANSA_COLOR;3;MPCADD;0.;0.;0.;0.;
$ANSA_COLOR;4;MPCADD;0.;0.;0.;0.;
$ANSA_COLOR;5;MPCADD;0.;0.;0.;0.;
$ANSA_COLOR;6;MPCADD;0.;0.;0.;0.;
$ANSA_COLOR;7;MPCADD;0.;0.;0.;0.;
$ANSA_COLOR;8;MPCADD;0.;0.;0.;0.;
$ANSA_COLOR;9;MPCADD;0.;0.;0.;0.;
$ANSA_COLOR;10;MPCADD;0.;0.;0.;0.;
$ANSA_COLOR;11;MPCADD;0.;0.;0.;0.;
$ANSA_COLOR;12;MPCADD;0.;0.;0.;0.;
$ANSA_COLOR;13;MPCADD;0.;0.;0.;0.;
$ANSA_COLOR;14;MPCADD;0.;0.;0.;0.;
$ANSA_COLOR;15;MPCADD;0.;0.;0.;0.;
$ANSA_COLOR;16;MPCADD;0.;0.;0.;0.;
$ANSA_COLOR;17;MPCADD;0.;0.;0.;0.;
$ANSA_COLOR;18;MPCADD;0.;0.;0.;0.;
$ANSA_COLOR;19;MPCADD;0.;0.;0.;0.;
$ANSA_COLOR;20;MPCADD;0.;0.;0.;0.;
$ANSA_COLOR;21;MPCADD;0.;0.;0.;0.;
$ANSA_COLOR;22;MPCADD;0.;0.;0.;0.;
$ANSA_COLOR;23;MPCADD;0.;0.;0.;0.;
$ANSA_COLOR;1;LOAD;0.;0.;0.;0.;
$ANSA_COLOR;2;LOAD;0.;0.;0.;0.;
$ANSA_COLOR;3;LOAD;0.;0.;0.;0.;
$ANSA_COLOR;4;LOAD;0.;0.;0.;0.;
$ANSA_COLOR;5;LOAD;0.;0.;0.;0.;
$ANSA_COLOR;6;LOAD;0.;0.;0.;0.;
$ANSA_COLOR;7;LOAD;0.;0.;0.;0.;
$ANSA_COLOR;8;LOAD;0.;0.;0.;0.;
$ANSA_COLOR;9;LOAD;0.;0.;0.;0.;
$ANSA_COLOR;10;LOAD;0.;0.;0.;0.;
$ANSA_COLOR;11;LOAD;0.;0.;0.;0.;
$ANSA_COLOR;12;LOAD;0.;0.;0.;0.;
$ANSA_COLOR;13;LOAD;0.;0.;0.;0.;
$ANSA_COLOR;14;LOAD;0.;0.;0.;0.;
$ANSA_COLOR;15;LOAD;0.;0.;0.;0.;
$ANSA_COLOR;16;LOAD;0.;0.;0.;0.;
$ANSA_COLOR;17;LOAD;0.;0.;0.;0.;
$ANSA_COLOR;18;LOAD;0.;0.;0.;0.;
$ANSA_COLOR;19;LOAD;0.;0.;0.;0.;
$ANSA_COLOR;20;LOAD;0.;0.;0.;0.;
$ ... 12 like lines cut
$ANSA_COLOR;2000011;LOAD_SET;.639215707778931;.976470589637756;.921568632125854;
$1.;
$ANSA_COLOR;2000012;LOAD_SET;.788235306739807;0.43529412150383;.658823549747467;
$1.;
$ANSA_COLOR;2000022;LOAD_SET;.945098042488098;.729411780834198;.592156887054443;
$1.;
$ANSA_COLOR;2000031;LOAD_SET;.686274528503418;.027450980618596;0.26274511218071;
$1.;
$ANSA_COLOR;2000032;LOAD_SET;.701960802078247;.219607844948769;.729411780834198;
$1.;
$ANSA_COLOR;2001010;LOAD_SET;.780392169952393;0.65490198135376;.003921568859369;
$1.;
$ANSA_COLOR;2001013;LOAD_SET;.964705884456635;.490196079015732;.521568655967712;
$1.;
$ANSA_COLOR;2001020;LOAD_SET;.627451002597809;.517647087574005;.137254908680916;
$1.;
$ANSA_COLOR;2001023;LOAD_SET;0.65490198135376;.850980401039124;.521568655967712;
$1.;
$ANSA_COLOR;2001030;LOAD_SET;.964705884456635;.019607843831182;.580392181873322;
$1.;
$ANSA_COLOR;2001033;LOAD_SET;.949019610881805;.407843142747879;.725490212440491;
$1.;
$ANSA_COLOR;2001040;LOAD_SET;.792156875133514;.168627455830574;.337254911661148;
$1.;
$ANSA_COLOR;2001043;LOAD_SET;.839215695858002;.168627455830574;.129411771893501;
$1.;
$ANSA_COLOR;2001050;LOAD_SET;.603921592235565;.960784316062927;.403921574354172;
$1.;
$ANSA_COLOR;2001053;LOAD_SET;0.82745099067688;.125490203499794;.733333349227905;
$1.;
$ANSA_COLOR;2001063;LOAD_SET;.917647063732147;.282352954149246;.533333361148834;
$1.;
$ANSA_COLOR;2010011;LOAD_SET;.607843160629272;.850980401039124;.733333349227905;
$1.;
$ANSA_COLOR;2010031;LOAD_SET;.756862759590149;0.10196078568697;.270588248968124;
$1.;
$ANSA_COLOR;2400012;LOAD_SET;.772549033164978;.137254908680916;.094117648899555;
$1.;
$ANSA_COLOR;2400014;LOAD_SET;.933333337306976;.792156875133514;.294117659330368;
$1.;
$ ... 39 like lines cut
$.;
$ANSA_COLOR;2800133;LOAD_SET;.803921580314636;.788235306739807;.768627464771271;
$1.;
$ANSA_COLOR;2810133;LOAD_SET;.694117665290833;.545098066329956;.172549024224281;
$1.;
$ANSA_FROZEN_ID;9006;MAT1;YES;
$ANSA_COMMENT;6362100;PSHELL;ATTRIBUTE:ShowPublishedAndLineType (1 field(s))~
$Value:1536~
$ATTRIBUTE:Name (1 field(s))~
$Value:63621TY2_A000H1~
$ATTRIBUTE:LayerId (1 field(s))~
$Value:1~
$ATTRIBUTE:Original Name (1 field(s))~
$Value:63621TY2_A000H1~
$;
$ANSA_COMMENT;6362500;PSHELL;ATTRIBUTE:ShowPublishedAndLineType (1 field(s))~
$Value:1536~
$ATTRIBUTE:Name (1 field(s))~
$Value:63625TY2_A000H1~
$ATTRIBUTE:LayerId (1 field(s))~
$Value:1~
$ATTRIBUTE:Original Name (1 field(s))~
$Value:63625TY2_A000H1~
$;
$ANSA_COMMENT;6453100;PSHELL;ATTRIBUTE:ShowPublishedAndLineType (1 field(s))~
$Value:1536~
$ATTRIBUTE:Name (1 field(s))~
$Value:64531TY2AA00250~
$ATTRIBUTE:ColorId (1 field(s))~
$Value:23~
$ATTRIBUTE:LayerId (1 field(s))~
$Value:1~
$ATTRIBUTE:Original Name (1 field(s))~
$Value:64531TY2AA00250~
$;
$ANSA_USER_ATTRIBUTES;PSHELL;User/cad_material;TEXT;RW;YES;;;
$ANSA_USER_ATTRIBUTES;PSHELL;User/cad_thickness;TEXT;RW;YES;;;
$ANSA_PART;GROUP;ID;6066;NAME;01_BIW;BELONGS_HERE;YES;PID_OFFSET;0;COLOR;232;62;
$35;0;IS_COLOR_ACTIVE;1;ATTRIBUTES;2;DM/File Type;ANSA;DM/Status;WIP;CONTAINS;AN
$SAPART;2810,5428,5680,5741,6124,6274;
$ANSA_PART;PART;ID;2810;NAME;RIGIDs;BELONGS_HERE;YES;STUDY_VERSION;0;PID_OFFSET;
$0;COLOR;152;163;214;0;IS_COLOR_ACTIVE;1;ATTRIBUTES;2;DM/File Type;ANSA;DM/Statu
$s;WIP;CONTAINS;RBE2;70700004;
$ANSA_PART;PART;ID;5428;NAME;RIGIDs@51;BELONGS_HERE;YES;STUDY_VERSION;0;PID_OFFS
$ET;0;COLOR;138;90;193;0;IS_COLOR_ACTIVE;1;ATTRIBUTES;2;DM/File Type;ANSA;DM/Sta
$tus;WIP;CONTAINS;RBE2;3107708;
$ANSA_PART;PART;ID;5680;MID;6362500;NAME;63625TY2_A000H1;BELONGS_HERE;YES;STUDY_
$VERSION;0;PID_OFFSET;0;COLOR;188;220;212;0;IS_COLOR_ACTIVE;1;ATTRIBUTES;2;DM/Fi
$le Type;ANSA;DM/Status;WIP;CONTAINS;PSHELL;6362500;
$ANSA_PART;PART;ID;5741;MID;6453100;NAME;64531TY2_A000_50;BELONGS_HERE;YES;STUDY
$_VERSION;0;PID_OFFSET;0;COLOR;194;51;202;0;IS_COLOR_ACTIVE;1;ATTRIBUTES;2;DM/Fi
$le Type;ANSA;DM/Status;WIP;CONTAINS;PSHELL;6453100;
$ANSA_PART;PART;ID;6124;NAME;BARs@47;BELONGS_HERE;YES;STUDY_VERSION;0;PID_OFFSET
$;0;COLOR;253;77;107;0;IS_COLOR_ACTIVE;1;ATTRIBUTES;2;DM/File Type;ANSA;DM/Statu
$s;WIP;CONTAINS;CBAR;3095283;
$ANSA_PART;PART;ID;6274;MID;6362100;NAME;63621TY2_A000H1;BELONGS_HERE;YES;STUDY_
$VERSION;0;PID_OFFSET;0;COLOR;170;147;160;0;IS_COLOR_ACTIVE;1;ATTRIBUTES;2;DM/Fi
$le Type;ANSA;DM/Status;WIP;CONTAINS;PSHELL;6362100;
$$$$$$$$$$$$$$$$$$$$$$$$$$$$$$$$$$$$$$$$$$$$$$$$$$$$$$$$$$$$$$$$$$$$$$$$$$$$$$$$
$$$$$$$$$$$$$$$$$$$$$$$$$$$$$$$$$$$$$$$$$$$$$$$$$$$$$$$$$$$$$$$$$$$$$$$$$$$$$$$$
